<connections>
  <connection from="np1_nt1" to="nt1_np5" fromLane="0" toLane="0"/>
  <connection from="np5_nt1" to="nt1_np1" fromLane="0" toLane="0"/>
  <connection from="np6_nt1" to="nt1_nt2" fromLane="0" toLane="0"/>
  <connection from="nt2_nt1" to="nt1_np6" fromLane="0" toLane="0"/>
  <connection from="np1_nt1" to="nt1_np6" fromLane="0" toLane="1"/>
  <connection from="np5_nt1" to="nt1_nt2" fromLane="0" toLane="1"/>
  <connection from="np6_nt1" to="nt1_np5" fromLane="1" toLane="0"/>
  <connection from="nt2_nt1" to="nt1_np1" fromLane="1" toLane="0"/>
  <connection from="np1_nt1" to="nt1_nt2" fromLane="0" toLane="0"/>
  <connection from="np5_nt1" to="nt1_np6" fromLane="0" toLane="0"/>
  <connection from="np6_nt1" to="nt1_np1" fromLane="0" toLane="0"/>
  <connection from="nt2_nt1" to="nt1_np5" fromLane="0" toLane="0"/>
  <connection from="np2_nt2" to="nt2_np4" fromLane="0" toLane="0"/>
  <connection from="np4_nt2" to="nt2_np2" fromLane="0" toLane="0"/>
  <connection from="nt1_nt2" to="nt2_np3" fromLane="0" toLane="0"/>
  <connection from="np3_nt2" to="nt2_nt1" fromLane="0" toLane="0"/>
  <connection from="np2_nt2" to="nt2_nt1" fromLane="0" toLane="1"/>
  <connection from="np4_nt2" to="nt2_np3" fromLane="0" toLane="1"/>
  <connection from="nt1_nt2" to="nt2_np4" fromLane="1" toLane="0"/>
  <connection from="np3_nt2" to="nt2_np2" fromLane="1" toLane="0"/>
  <connection from="np2_nt2" to="nt2_np3" fromLane="0" toLane="0"/>
  <connection from="np4_nt2" to="nt2_nt1" fromLane="0" toLane="0"/>
  <connection from="nt1_nt2" to="nt2_np2" fromLane="0" toLane="0"/>
  <connection from="np3_nt2" to="nt2_np4" fromLane="0" toLane="0"/>
</connections>
