<additional>
  <tlLogic id="nt1" programID="0" offset="0" type="static">
    <phase duration="30" state="GGgrrrGGgrrr"/>
    <phase duration="3" state="yyyrrryyyrrr"/>
    <phase duration="30" state="rrrGrGrrrGrG"/>
    <phase duration="3" state="rrrGryrrrGry"/>
    <phase duration="30" state="rrrGGrrrrGGr"/>
    <phase duration="3" state="rrryyrrrryyr"/>
  </tlLogic>
  <tlLogic id="nt2" programID="0" offset="0" type="static">
    <phase duration="30" state="GGgrrrGGgrrr"/>
    <phase duration="3" state="yyyrrryyyrrr"/>
    <phase duration="30" state="rrrGrGrrrGrG"/>
    <phase duration="3" state="rrrGryrrrGry"/>
    <phase duration="30" state="rrrGGrrrrGGr"/>
    <phase duration="3" state="rrryyrrrryyr"/>
  </tlLogic>
</additional>
